<net version="1.9" junctionCornerDetail="5">
  <location netOffset="0.00,0.00" convBoundary="0.00,0.00,500.00,500.00" origBoundary="0.00,0.00,500.00,500.00"/>
</net>
