<routes>
  <vType id="car" accel="2.6" decel="4.5" length="5" maxSpeed="13.9"/>
  <route id="r0" edges=""/>
  <vehicle id="veh0" type="car" route="r0" depart="0"/>
</routes>
