<?xml version="1.0" encoding="UTF-8"?>

<routes xmlns:xsi="http://www.w3.org/2001/XMLSchema-instance" xsi:noNamespaceSchemaLocation="http://sumo.dlr.de/xsd/routes_file.xsd">
    
    <vType id="car" accel="2.6" decel="4.5" length="5.0" maxSpeed="13.89" sigma="0.5" color="1,1,0"/>
    
    <route id="route0" edges="e0"/>
    
    <flow id="flow0" type="car" route="route0" begin="0" end="100" number="10" departSpeed="max"/>
    
</routes>