<?xml version="1.0" encoding="UTF-8"?>
<edges version="1.9" xmlns:xsi="http://www.w3.org/2001/XMLSchema-instance" xsi:noNamespaceSchemaLocation="http://sumo.dlr.de/xsd/edges_file.xsd">
    <edge id="AB" from="A" to="B" numLanes="1" speed="13.9"/>
    <edge id="BC" from="B" to="C" numLanes="1" speed="13.9"/>
    <edge id="CD" from="C" to="D" numLanes="1" speed="13.9"/>
    <edge id="DA" from="D" to="A" numLanes="1" speed="13.9"/>
</edges>