<?xml version="1.0" encoding="UTF-8"?>
<nodes version="1.9" xmlns:xsi="http://www.w3.org/2001/XMLSchema-instance" xsi:noNamespaceSchemaLocation="http://sumo.dlr.de/xsd/nodes_file.xsd">
    <node id="A" x="0.0" y="0.0" type="priority"/>
    <node id="B" x="100.0" y="0.0" type="priority"/>
    <node id="C" x="100.0" y="100.0" type="priority"/>
    <node id="D" x="0.0" y="100.0" type="priority"/>
</nodes>